test/data/matpower/multi_nw/mpc_multinetwork_20/mpc_004_000.m
function mpc = mpc_004_000
%MPC_004_000	Extended MATPOWER case file generated from aggregated PyPSA generator and load data
%	Period: 4 	Weight: 31
%	Time step: 0

%%	MATPOWER Case Format : Version 2
mpc.version = '2';

%% system MVA base
mpc.baseMVA = 100;

%% bus data
%	bus_i	type	Pd	Qd	Gs	Bs	area	Vm	Va	baseKV	zone	Vmax	Vmin
mpc.bus = [
	1	2	264.52305315747316	0.0	0.0	0.0	1	1.0	0.0	230.0	1	1.1	0.9;
	2	2	4011.686416796982	0.0	0.0	0.0	2	1.0	0.0	230.0	1	1.1	0.9;
	11	2	955.1947291492892	0.0	0.0	0.0	11	1.0	0.0	230.0	1	1.1	0.9;
	12	2	-120.13312819555848	0.0	0.0	0.0	12	1.0	0.0	230.0	1	1.1	0.9;
	13	2	3006.883580441017	0.0	0.0	0.0	13	1.0	0.0	230.0	1	1.1	0.9;
	14	2	4727.304424882841	0.0	0.0	0.0	14	1.0	0.0	230.0	1	1.1	0.9;
	15	2	205.3184766389804	0.0	0.0	0.0	15	1.0	0.0	230.0	1	1.1	0.9;
	16	2	2134.1144466627093	0.0	0.0	0.0	16	1.0	0.0	230.0	1	1.1	0.9;
	17	2	1323.2226037507442	0.0	0.0	0.0	17	1.0	0.0	230.0	1	1.1	0.9;
	18	2	2189.430332584538	0.0	0.0	0.0	18	1.0	0.0	230.0	1	1.1	0.9;
	19	2	1112.7858365942316	0.0	0.0	0.0	19	1.0	0.0	230.0	1	1.1	0.9;
	20	2	2564.099000733929	0.0	0.0	0.0	20	1.0	0.0	230.0	1	1.1	0.9;
	3	2	4250.1733332133235	0.0	0.0	0.0	3	1.0	0.0	230.0	1	1.1	0.9;
	4	2	2468.2908530818304	0.0	0.0	0.0	4	1.0	0.0	230.0	1	1.1	0.9;
	5	2	3310.6674100516634	0.0	0.0	0.0	5	1.0	0.0	230.0	1	1.1	0.9;
	6	2	3452.31969574555	0.0	0.0	0.0	6	1.0	0.0	230.0	1	1.1	0.9;
	7	2	2794.146301059077	0.0	0.0	0.0	7	1.0	0.0	230.0	1	1.1	0.9;
	8	2	3659.6169312837305	0.0	0.0	0.0	8	1.0	0.0	230.0	1	1.1	0.9;
	9	2	3452.125860352999	0.0	0.0	0.0	9	1.0	0.0	230.0	1	1.1	0.9;
	10	2	3031.266478702779	0.0	0.0	0.0	10	1.0	0.0	230.0	1	1.1	0.9;
];

%% generator data
%	bus	Pg	Qg	Qmax	Qmin	Vg	mBase	status	Pmax	Pmin	H	n0	nE	nE_max
mpc.gen = [
	1	0.0	0.0	0.0	-0.0	1.0	100.0	1	9.5255	2.0436	2.8	8.0	8.0	469.0;	%0 biomass
	1	0.0	0.0	0.0	-0.0	1.0	100.0	1	4.3664944020244825	0.0	0.0	1.0	1.0	276.0;	%0 offwind
	1	0.0	0.0	0.0	-0.0	1.0	100.0	1	8.622300218594978	0.0	0.0	43.0	43.0	124.0;	%0 onwind
	1	0.0	0.0	0.0	-0.0	1.0	100.0	1	0.0	0.0	0.0	23.0	23.0	168.0;	%0 solar
	2	0.0	0.0	0.0	-0.0	1.0	100.0	1	208.82	78.4	5.0	5.0	5.0	53.0;	%1 CCGT
	2	0.0	0.0	0.0	-0.0	1.0	100.0	1	168.10750000000002	78.4	2.8	2.0	2.0	53.0;	%1 OCGT
	2	0.0	0.0	0.0	-0.0	1.0	100.0	1	9.71684375	2.0436	2.8	24.0	24.0	1172.0;	%1 biomass
	2	0.0	0.0	0.0	-0.0	1.0	100.0	1	7.8843940714848975	0.0	0.0	57.0	57.0	309.0;	%1 onwind
	2	0.0	0.0	0.0	-0.0	1.0	100.0	1	0.0	0.0	0.0	75.0	75.0	419.0;	%1 solar
	11	0.0	0.0	0.0	-0.0	1.0	100.0	1	174.25	78.4	5.0	2.0	2.0	74.0;	%10 CCGT
	11	0.0	0.0	0.0	-0.0	1.0	100.0	1	149.3	78.4	2.8	1.0	1.0	74.0;	%10 OCGT
	11	0.0	0.0	0.0	-0.0	1.0	100.0	1	9.873419199999999	2.0436	2.8	50.0	50.0	1637.0;	%10 biomass
	11	0.0	0.0	0.0	-0.0	1.0	100.0	1	4.907486579107763	0.0	0.0	20.0	20.0	963.0;	%10 offwind
	11	0.0	0.0	0.0	-0.0	1.0	100.0	1	8.393462195967686	0.0	0.0	118.0	118.0	431.0;	%10 onwind
	11	0.0	0.0	0.0	-0.0	1.0	100.0	1	0.0	0.0	0.0	86.0	86.0	585.0;	%10 solar
	12	0.0	0.0	0.0	-0.0	1.0	100.0	1	78.4	78.4	5.0	1.0	1.0	46.0;	%11 CCGT
	12	0.0	0.0	0.0	-0.0	1.0	100.0	1	209.5	78.4	2.8	1.0	1.0	46.0;	%11 OCGT
	12	0.0	0.0	0.0	-0.0	1.0	100.0	1	9.822157142857145	2.0436	2.8	35.0	35.0	1023.0;	%11 biomass
	12	0.0	0.0	0.0	-0.0	1.0	100.0	1	3.8016972581702113	0.0	0.0	7.0	7.0	602.0;	%11 offwind
	12	0.0	0.0	0.0	-0.0	1.0	100.0	1	9.084849106412902	0.0	0.0	86.0	86.0	270.0;	%11 onwind
	12	0.0	0.0	0.0	-0.0	1.0	100.0	1	0.0	0.0	0.0	40.0	40.0	366.0;	%11 solar
	13	0.0	0.0	0.0	-0.0	1.0	100.0	1	78.4	78.4	2.8	1.0	1.0	58.0;	%12 OCGT
	13	0.0	0.0	0.0	-0.0	1.0	100.0	1	9.90428347826087	2.0436	2.8	69.0	69.0	1280.0;	%12 biomass
	13	0.0	0.0	0.0	-0.0	1.0	100.0	1	6.232961733743954	0.0	0.0	29.0	29.0	337.0;	%12 onwind
	13	0.0	0.0	0.0	-0.0	1.0	100.0	1	0.0	0.0	0.0	166.0	166.0	457.0;	%12 solar
	14	0.0	0.0	0.0	-0.0	1.0	100.0	1	193.292	78.4	5.0	5.0	5.0	72.0;	%13 CCGT
	14	0.0	0.0	0.0	-0.0	1.0	100.0	1	198.34283333333335	78.4	2.8	3.0	3.0	72.0;	%13 OCGT
	14	0.0	0.0	0.0	-0.0	1.0	100.0	1	9.778892954545455	2.0436	2.8	44.0	44.0	1597.0;	%13 biomass
	14	0.0	0.0	0.0	-0.0	1.0	100.0	1	6.016461648160867	0.0	0.0	45.0	45.0	421.0;	%13 onwind
	14	0.0	0.0	0.0	-0.0	1.0	100.0	1	0.0	0.0	0.0	154.0	154.0	571.0;	%13 solar
	15	0.0	0.0	0.0	-0.0	1.0	100.0	1	78.4	78.4	5.0	1.0	1.0	28.0;	%14 CCGT
	15	0.0	0.0	0.0	-0.0	1.0	100.0	1	78.4	78.4	2.8	1.0	1.0	28.0;	%14 OCGT
	15	0.0	0.0	0.0	-0.0	1.0	100.0	1	9.49785	2.0436	2.8	11.0	11.0	621.0;	%14 biomass
	15	0.0	0.0	0.0	-0.0	1.0	100.0	1	5.185912931214466	0.0	0.0	34.0	34.0	365.0;	%14 offwind
	15	0.0	0.0	0.0	-0.0	1.0	100.0	1	9.361509187830118	0.0	0.0	37.0	37.0	164.0;	%14 onwind
	15	0.0	0.0	0.0	-0.0	1.0	100.0	1	0.0	0.0	0.0	33.0	33.0	222.0;	%14 solar
	16	0.0	0.0	0.0	-0.0	1.0	100.0	1	142.0	78.4	5.0	2.0	2.0	75.0;	%15 CCGT
	16	0.0	0.0	0.0	-0.0	1.0	100.0	1	78.4	78.4	2.8	1.0	1.0	75.0;	%15 OCGT
	16	0.0	0.0	0.0	-0.0	1.0	100.0	1	9.853806481481481	2.0436	2.8	54.0	54.0	1672.0;	%15 biomass
	16	0.0	0.0	0.0	-0.0	1.0	100.0	1	5.914548336900512	0.0	0.0	46.0	46.0	984.0;	%15 offwind
	16	0.0	0.0	0.0	-0.0	1.0	100.0	1	8.795711101680288	0.0	0.0	137.0	137.0	440.0;	%15 onwind
	16	0.0	0.0	0.0	-0.0	1.0	100.0	1	0.0	0.0	0.0	56.0	56.0	597.0;	%15 solar
	17	0.0	0.0	0.0	-0.0	1.0	100.0	1	120.0	78.4	5.0	2.0	2.0	58.0;	%16 CCGT
	17	0.0	0.0	0.0	-0.0	1.0	100.0	1	133.45	78.4	2.8	1.0	1.0	58.0;	%16 OCGT
	17	0.0	0.0	0.0	-0.0	1.0	100.0	1	9.93894076923077	2.0436	2.8	52.0	52.0	1279.0;	%16 biomass
	17	0.0	0.0	0.0	-0.0	1.0	100.0	1	5.756303336224211	0.0	0.0	18.0	18.0	337.0;	%16 onwind
	17	0.0	0.0	0.0	-0.0	1.0	100.0	1	0.0	0.0	0.0	173.0	173.0	457.0;	%16 solar
	18	0.0	0.0	0.0	-0.0	1.0	100.0	1	172.2	78.4	5.0	1.0	1.0	45.0;	%17 CCGT
	18	0.0	0.0	0.0	-0.0	1.0	100.0	1	80.11	78.4	2.8	1.0	1.0	45.0;	%17 OCGT
	18	0.0	0.0	0.0	-0.0	1.0	100.0	1	9.823858333333332	2.0436	2.8	12.0	12.0	991.0;	%17 biomass
	18	0.0	0.0	0.0	-0.0	1.0	100.0	1	8.583509905404659	0.0	0.0	72.0	72.0	261.0;	%17 onwind
	18	0.0	0.0	0.0	-0.0	1.0	100.0	1	0.0	0.0	0.0	67.0	67.0	354.0;	%17 solar
	19	0.0	0.0	0.0	-0.0	1.0	100.0	1	215.0	78.4	5.0	2.0	2.0	44.0;	%18 CCGT
	19	0.0	0.0	0.0	-0.0	1.0	100.0	1	78.4	78.4	2.8	1.0	1.0	44.0;	%18 OCGT
	19	0.0	0.0	0.0	-0.0	1.0	100.0	1	9.530666666666667	2.0436	2.8	18.0	18.0	974.0;	%18 biomass
	19	0.0	0.0	0.0	-0.0	1.0	100.0	1	8.734457036544471	0.0	0.0	53.0	53.0	257.0;	%18 onwind
	19	0.0	0.0	0.0	-0.0	1.0	100.0	1	0.0	0.0	0.0	81.0	81.0	348.0;	%18 solar
	20	0.0	0.0	0.0	-0.0	1.0	100.0	1	212.9294117647059	78.4	5.0	17.0	17.0	70.0;	%19 CCGT
	20	0.0	0.0	0.0	-0.0	1.0	100.0	1	168.36975	78.4	2.8	4.0	4.0	70.0;	%19 OCGT
	20	0.0	0.0	0.0	-0.0	1.0	100.0	1	9.898548538461538	2.0436	2.8	13.0	13.0	1562.0;	%19 biomass
	20	0.0	0.0	0.0	-0.0	1.0	100.0	1	12.567462251193826	0.0	0.0	49.0	49.0	411.0;	%19 onwind
	20	0.0	0.0	0.0	-0.0	1.0	100.0	1	0.0	0.0	0.0	56.0	56.0	558.0;	%19 solar
	3	0.0	0.0	0.0	-0.0	1.0	100.0	1	199.975	78.4	5.0	4.0	4.0	81.0;	%2 CCGT
	3	0.0	0.0	0.0	-0.0	1.0	100.0	1	138.3	78.4	2.8	1.0	1.0	81.0;	%2 OCGT
	3	0.0	0.0	0.0	-0.0	1.0	100.0	1	9.908959523809523	2.0436	2.8	63.0	63.0	1794.0;	%2 biomass
	3	0.0	0.0	0.0	-0.0	1.0	100.0	1	7.042978652725827	0.0	0.0	82.0	82.0	472.0;	%2 onwind
	3	0.0	0.0	0.0	-0.0	1.0	100.0	1	0.0	0.0	0.0	155.0	155.0	641.0;	%2 solar
	4	0.0	0.0	0.0	-0.0	1.0	100.0	1	192.35999999999999	78.4	5.0	5.0	5.0	139.0;	%3 CCGT
	4	0.0	0.0	0.0	-0.0	1.0	100.0	1	78.4	78.4	2.8	1.0	1.0	139.0;	%3 OCGT
	4	0.0	0.0	0.0	-0.0	1.0	100.0	1	9.850204846153847	2.0436	2.8	65.0	65.0	3109.0;	%3 biomass
	4	0.0	0.0	0.0	-0.0	1.0	100.0	1	7.744143468400563	0.0	0.0	350.0	350.0	1829.0;	%3 offwind
	4	0.0	0.0	0.0	-0.0	1.0	100.0	1	9.55421666755722	0.0	0.0	156.0	156.0	818.0;	%3 onwind
	4	0.0	0.0	0.0	-0.0	1.0	100.0	1	0.0	0.0	0.0	73.0	73.0	1111.0;	%3 solar
	5	0.0	0.0	0.0	-0.0	1.0	100.0	1	206.15833333333333	78.4	5.0	12.0	12.0	58.0;	%4 CCGT
	5	0.0	0.0	0.0	-0.0	1.0	100.0	1	127.455	78.4	2.8	2.0	2.0	58.0;	%4 OCGT
	5	0.0	0.0	0.0	-0.0	1.0	100.0	1	9.779668421052632	2.0436	2.8	38.0	38.0	1279.0;	%4 biomass
	5	0.0	0.0	0.0	-0.0	1.0	100.0	1	5.4312977528472235	0.0	0.0	16.0	16.0	337.0;	%4 onwind
	5	0.0	0.0	0.0	-0.0	1.0	100.0	1	0.0	0.0	0.0	98.0	98.0	457.0;	%4 solar
	6	0.0	0.0	0.0	-0.0	1.0	100.0	1	195.8	78.4	5.0	2.0	2.0	35.0;	%5 CCGT
	6	0.0	0.0	0.0	-0.0	1.0	100.0	1	89.0	78.4	2.8	1.0	1.0	35.0;	%5 OCGT
	6	0.0	0.0	0.0	-0.0	1.0	100.0	1	9.905931481481481	2.0436	2.8	27.0	27.0	779.0;	%5 biomass
	6	0.0	0.0	0.0	-0.0	1.0	100.0	1	4.987385730886897	0.0	0.0	17.0	17.0	205.0;	%5 onwind
	6	0.0	0.0	0.0	-0.0	1.0	100.0	1	0.0	0.0	0.0	90.0	90.0	278.0;	%5 solar
	7	0.0	0.0	0.0	-0.0	1.0	100.0	1	212.0017272727273	78.4	5.0	11.0	11.0	73.0;	%6 CCGT
	7	0.0	0.0	0.0	-0.0	1.0	100.0	1	158.5	78.4	2.8	1.0	1.0	73.0;	%6 OCGT
	7	0.0	0.0	0.0	-0.0	1.0	100.0	1	9.929266666666669	2.0436	2.8	45.0	45.0	1622.0;	%6 biomass
	7	0.0	0.0	0.0	-0.0	1.0	100.0	1	10.488047106766999	0.0	0.0	70.0	70.0	427.0;	%6 onwind
	7	0.0	0.0	0.0	-0.0	1.0	100.0	1	0.0	0.0	0.0	91.0	91.0	580.0;	%6 solar
	8	0.0	0.0	0.0	-0.0	1.0	100.0	1	195.0	78.4	5.0	2.0	2.0	76.0;	%7 CCGT
	8	0.0	0.0	0.0	-0.0	1.0	100.0	1	123.26	78.4	2.8	2.0	2.0	76.0;	%7 OCGT
	8	0.0	0.0	0.0	-0.0	1.0	100.0	1	9.831483333333335	2.0436	2.8	54.0	54.0	1682.0;	%7 biomass
	8	0.0	0.0	0.0	-0.0	1.0	100.0	1	7.482036150876466	0.0	0.0	109.0	109.0	443.0;	%7 onwind
	8	0.0	0.0	0.0	-0.0	1.0	100.0	1	0.0	0.0	0.0	111.0	111.0	601.0;	%7 solar
	9	0.0	0.0	0.0	-0.0	1.0	100.0	1	184.222	78.4	5.0	5.0	5.0	101.0;	%8 CCGT
	9	0.0	0.0	0.0	-0.0	1.0	100.0	1	221.50666666666666	78.4	2.8	3.0	3.0	101.0;	%8 OCGT
	9	0.0	0.0	0.0	-0.0	1.0	100.0	1	9.856493333333333	2.0436	2.8	60.0	60.0	2241.0;	%8 biomass
	9	0.0	0.0	0.0	-0.0	1.0	100.0	1	7.928899694172588	0.0	0.0	113.0	113.0	590.0;	%8 onwind
	9	0.0	0.0	0.0	-0.0	1.0	100.0	1	0.0	0.0	0.0	170.0	170.0	801.0;	%8 solar
	10	0.0	0.0	0.0	-0.0	1.0	100.0	1	209.9742857142857	78.4	5.0	14.0	14.0	112.0;	%9 CCGT
	10	0.0	0.0	0.0	-0.0	1.0	100.0	1	79.4	78.4	2.8	1.0	1.0	112.0;	%9 OCGT
	10	0.0	0.0	0.0	-0.0	1.0	100.0	1	9.998257142857144	2.0436	2.8	70.0	70.0	2491.0;	%9 biomass
	10	0.0	0.0	0.0	-0.0	1.0	100.0	1	9.561002001248022	0.0	0.0	133.0	133.0	656.0;	%9 onwind
	10	0.0	0.0	0.0	-0.0	1.0	100.0	1	0.0	0.0	0.0	132.0	132.0	890.0;	%9 solar
	6	0.0	0.0	0.0	-0.0	1.0	100.0	1	1776.8	266.52	3.5	1	1	1;	%DE1 0 PHS
	6	0.0	0.0	0.0	-0.0	1.0	100.0	1	-266.52	-1776.8	3.5	1	1	1;	%DE1 0 PHS (pump mode)
	18	0.0	0.0	0.0	-0.0	1.0	100.0	1	1294.0	194.1	3.5	1	1	1;	%DE1 12 PHS
	18	0.0	0.0	0.0	-0.0	1.0	100.0	1	-194.1	-1294.0	3.5	1	1	1;	%DE1 12 PHS (pump mode)
	10	0.0	0.0	0.0	-0.0	1.0	100.0	1	7.42	1.113	3.5	1	1	1;	%DE1 14 PHS
	10	0.0	0.0	0.0	-0.0	1.0	100.0	1	-1.113	-7.42	3.5	1	1	1;	%DE1 14 PHS (pump mode)
	8	0.0	0.0	0.0	-0.0	1.0	100.0	1	220.0	33.0	3.5	1	1	1;	%DE1 17 PHS
	8	0.0	0.0	0.0	-0.0	1.0	100.0	1	-33.0	-220.0	3.5	1	1	1;	%DE1 17 PHS (pump mode)
	9	0.0	0.0	0.0	-0.0	1.0	100.0	1	960.0	144.0	3.5	1	1	1;	%DE1 2 PHS
	9	0.0	0.0	0.0	-0.0	1.0	100.0	1	-144.0	-960.0	3.5	1	1	1;	%DE1 2 PHS (pump mode)
	9	0.0	0.0	0.0	-0.0	1.0	100.0	1	39.8	5.97	3.5	1	1	1;	%DE1 20 PHS
	9	0.0	0.0	0.0	-0.0	1.0	100.0	1	-5.97	-39.8	3.5	1	1	1;	%DE1 20 PHS (pump mode)
	3	0.0	0.0	0.0	-0.0	1.0	100.0	1	160.0	24.0	3.5	1	1	1;	%DE1 21 PHS
	3	0.0	0.0	0.0	-0.0	1.0	100.0	1	-24.0	-160.0	3.5	1	1	1;	%DE1 21 PHS (pump mode)
	5	0.0	0.0	0.0	-0.0	1.0	100.0	1	124.0	18.599999999999998	3.5	1	1	1;	%DE1 25 hydro
	17	0.0	0.0	0.0	-0.0	1.0	100.0	1	167.1	25.064999999999998	3.5	1	1	1;	%DE1 27 PHS
	17	0.0	0.0	0.0	-0.0	1.0	100.0	1	-25.064999999999998	-167.1	3.5	1	1	1;	%DE1 27 PHS (pump mode)
	6	0.0	0.0	0.0	-0.0	1.0	100.0	1	109.0	16.349999999999998	3.5	1	1	1;	%DE1 31 PHS
	6	0.0	0.0	0.0	-0.0	1.0	100.0	1	-16.349999999999998	-109.0	3.5	1	1	1;	%DE1 31 PHS (pump mode)
	10	0.0	0.0	0.0	-0.0	1.0	100.0	1	480.0	72.0	3.5	1	1	1;	%DE1 33 PHS
	10	0.0	0.0	0.0	-0.0	1.0	100.0	1	-72.0	-480.0	3.5	1	1	1;	%DE1 33 PHS (pump mode)
	5	0.0	0.0	0.0	-0.0	1.0	100.0	1	92.0	13.799999999999999	3.5	1	1	1;	%DE1 36 PHS
	5	0.0	0.0	0.0	-0.0	1.0	100.0	1	-13.799999999999999	-92.0	3.5	1	1	1;	%DE1 36 PHS (pump mode)
	2	0.0	0.0	0.0	-0.0	1.0	100.0	1	278.0	41.699999999999996	3.5	1	1	1;	%DE1 43 PHS
	2	0.0	0.0	0.0	-0.0	1.0	100.0	1	-41.699999999999996	-278.0	3.5	1	1	1;	%DE1 43 PHS (pump mode)
	14	0.0	0.0	0.0	-0.0	1.0	100.0	1	164.0	24.599999999999998	3.5	1	1	1;	%DE1 49 PHS
	14	0.0	0.0	0.0	-0.0	1.0	100.0	1	-24.599999999999998	-164.0	3.5	1	1	1;	%DE1 49 PHS (pump mode)
	8	0.0	0.0	0.0	-0.0	1.0	100.0	1	79.7	11.955	3.5	1	1	1;	%DE1 50 PHS
	8	0.0	0.0	0.0	-0.0	1.0	100.0	1	-11.955	-79.7	3.5	1	1	1;	%DE1 50 PHS (pump mode)
	3	0.0	0.0	0.0	-0.0	1.0	100.0	1	399.8	59.97	3.5	1	1	1;	%DE1 52 PHS
	3	0.0	0.0	0.0	-0.0	1.0	100.0	1	-59.97	-399.8	3.5	1	1	1;	%DE1 52 PHS (pump mode)
	7	0.0	0.0	0.0	-0.0	1.0	100.0	1	162.0	24.3	3.5	1	1	1;	%DE1 54 PHS
	7	0.0	0.0	0.0	-0.0	1.0	100.0	1	-24.3	-162.0	3.5	1	1	1;	%DE1 54 PHS (pump mode)
	14	0.0	0.0	0.0	-0.0	1.0	100.0	1	90.0	13.5	3.5	1	1	1;	%DE1 61 PHS
	14	0.0	0.0	0.0	-0.0	1.0	100.0	1	-13.5	-90.0	3.5	1	1	1;	%DE1 61 PHS (pump mode)
	3	0.0	0.0	0.0	-0.0	1.0	100.0	1	1060.0	159.0	3.5	1	1	1;	%DE1 7 PHS
	3	0.0	0.0	0.0	-0.0	1.0	100.0	1	-159.0	-1060.0	3.5	1	1	1;	%DE1 7 PHS (pump mode)
	13	0.0	0.0	0.0	-0.0	1.0	100.0	1	45.5	6.825	3.5	1	1	1;	%DE1 71 hydro
	16	0.0	0.0	0.0	-0.0	1.0	100.0	1	120.0	18.0	3.5	1	1	1;	%DE1 76 PHS
	16	0.0	0.0	0.0	-0.0	1.0	100.0	1	-18.0	-120.0	3.5	1	1	1;	%DE1 76 PHS (pump mode)
];

%% generator cost data
%	2	startup	shutdown	n	c(n-1)	...	c0	investment
mpc.gencost = [
	2	0	0	3	0.0	462.0288428361754	0.0	0.0	8620575.026037386;	%0 biomass
	2	0	0	3	0.0	0.7648599723294006	0.0	0.0	5872932.855430372;	%0 offwind
	2	0	0	3	0.0	0.7470219490830795	0.0	0.0	2978662.5286189546;	%0 onwind
	2	0	0	3	0.0	0.5908246819051755	0.0	0.0	1103664.208557938;	%0 solar
	2	0	0	3	0.0	1404.948911017301	0.0	0.0	3069859.608087726;	%1 CCGT
	2	0	0	3	0.0	1714.9639173859948	0.0	0.0	1397958.6869687974;	%1 OCGT
	2	0	0	3	0.0	462.01038570589054	0.0	0.0	8620575.026037384;	%1 biomass
	2	0	0	3	0.0	0.7619804337488439	0.0	0.0	2978662.5286189546;	%1 onwind
	2	0	0	3	0.0	0.6181328278277615	0.0	0.0	1103664.208557938;	%1 solar
	2	0	0	3	0.0	1231.0285296456927	0.0	0.0	3069859.608087726;	%10 CCGT
	2	0	0	3	0.0	1785.6960744650628	0.0	0.0	1397958.6869687974;	%10 OCGT
	2	0	0	3	0.0	462.0188848362084	0.0	0.0	8620575.026037384;	%10 biomass
	2	0	0	3	0.0	0.7654857447834974	0.0	0.0	5797930.675871179;	%10 offwind
	2	0	0	3	0.0	0.7687909873553916	0.0	0.0	2978662.5286189555;	%10 onwind
	2	0	0	3	0.0	0.6144906182827825	0.0	0.0	1103664.208557938;	%10 solar
	2	0	0	3	0.0	1148.6733871916906	0.0	0.0	3069859.608087726;	%11 CCGT
	2	0	0	3	0.0	1705.206384259728	0.0	0.0	1397958.6869687974;	%11 OCGT
	2	0	0	3	0.0	462.02910281401665	0.0	0.0	8620575.026037382;	%11 biomass
	2	0	0	3	0.0	0.7847408478513331	0.0	0.0	5764741.799003063;	%11 offwind
	2	0	0	3	0.0	0.7473111192301902	0.0	0.0	2978662.528618955;	%11 onwind
	2	0	0	3	0.0	0.6229574793401289	0.0	0.0	1103664.208557938;	%11 solar
	2	0	0	3	0.0	1696.0169009030976	0.0	0.0	1397958.6869687974;	%12 OCGT
	2	0	0	3	0.0	462.0203216511191	0.0	0.0	8620575.026037384;	%12 biomass
	2	0	0	3	0.0	0.7754945403086623	0.0	0.0	2978662.528618955;	%12 onwind
	2	0	0	3	0.0	0.6203133245207554	0.0	0.0	1103664.208557938;	%12 solar
	2	0	0	3	0.0	1275.0886588869266	0.0	0.0	3069859.608087726;	%13 CCGT
	2	0	0	3	0.0	1773.7043734217407	0.0	0.0	1397958.6869687974;	%13 OCGT
	2	0	0	3	0.0	462.01608058614676	0.0	0.0	8620575.026037384;	%13 biomass
	2	0	0	3	0.0	0.7883064010943591	0.0	0.0	2978662.528618955;	%13 onwind
	2	0	0	3	0.0	0.6275529072390459	0.0	0.0	1103664.208557938;	%13 solar
	2	0	0	3	0.0	1313.9723268373991	0.0	0.0	3069859.608087726;	%14 CCGT
	2	0	0	3	0.0	1772.4345105509433	0.0	0.0	1397958.6869687974;	%14 OCGT
	2	0	0	3	0.0	461.99714320902456	0.0	0.0	8620575.026037384;	%14 biomass
	2	0	0	3	0.0	0.7664660210188993	0.0	0.0	6071294.90117939;	%14 offwind
	2	0	0	3	0.0	0.758880077567215	0.0	0.0	2978662.5286189555;	%14 onwind
	2	0	0	3	0.0	0.6066657895134454	0.0	0.0	1103664.208557938;	%14 solar
	2	0	0	3	0.0	1180.0630031505034	0.0	0.0	3069859.608087726;	%15 CCGT
	2	0	0	3	0.0	1655.1478908193997	0.0	0.0	1397958.6869687974;	%15 OCGT
	2	0	0	3	0.0	462.02134750799553	0.0	0.0	8620575.026037384;	%15 biomass
	2	0	0	3	0.0	0.775991052114301	0.0	0.0	6336001.825257506;	%15 offwind
	2	0	0	3	0.0	0.7681406391331771	0.0	0.0	2978662.5286189555;	%15 onwind
	2	0	0	3	0.0	0.5995221317210306	0.0	0.0	1103664.208557938;	%15 solar
	2	0	0	3	0.0	1235.2602541513222	0.0	0.0	3069859.608087726;	%16 CCGT
	2	0	0	3	0.0	1709.1338076386833	0.0	0.0	1397958.6869687976;	%16 OCGT
	2	0	0	3	0.0	462.0102143077314	0.0	0.0	8620575.026037386;	%16 biomass
	2	0	0	3	0.0	0.7668396589737146	0.0	0.0	2978662.528618955;	%16 onwind
	2	0	0	3	0.0	0.6166618429997998	0.0	0.0	1103664.2085579382;	%16 solar
	2	0	0	3	0.0	1270.0085630706258	0.0	0.0	3069859.608087726;	%17 CCGT
	2	0	0	3	0.0	1666.1311985132695	0.0	0.0	1397958.6869687974;	%17 OCGT
	2	0	0	3	0.0	462.0154316730404	0.0	0.0	8620575.026037384;	%17 biomass
	2	0	0	3	0.0	0.790255533206836	0.0	0.0	2978662.5286189555;	%17 onwind
	2	0	0	3	0.0	0.6319037354334405	0.0	0.0	1103664.2085579382;	%17 solar
	2	0	0	3	0.0	1331.2552028892742	0.0	0.0	3069859.608087726;	%18 CCGT
	2	0	0	3	0.0	1679.0980427992442	0.0	0.0	1397958.6869687974;	%18 OCGT
	2	0	0	3	0.0	462.0237941089924	0.0	0.0	8620575.026037384;	%18 biomass
	2	0	0	3	0.0	0.7721974538645547	0.0	0.0	2978662.528618955;	%18 onwind
	2	0	0	3	0.0	0.6199824611394615	0.0	0.0	1103664.208557938;	%18 solar
	2	0	0	3	0.0	1247.4046957516746	0.0	0.0	3069859.608087726;	%19 CCGT
	2	0	0	3	0.0	1747.7267196185458	0.0	0.0	1397958.6869687974;	%19 OCGT
	2	0	0	3	0.0	462.01314818173415	0.0	0.0	8620575.026037384;	%19 biomass
	2	0	0	3	0.0	0.7878351117055713	0.0	0.0	2978662.5286189546;	%19 onwind
	2	0	0	3	0.0	0.6162540785857824	0.0	0.0	1103664.208557938;	%19 solar
	2	0	0	3	0.0	1335.464489221186	0.0	0.0	3069859.608087726;	%2 CCGT
	2	0	0	3	0.0	1764.9828607752925	0.0	0.0	1397958.6869687976;	%2 OCGT
	2	0	0	3	0.0	462.0108886660554	0.0	0.0	8620575.026037384;	%2 biomass
	2	0	0	3	0.0	0.7764062978990285	0.0	0.0	2978662.528618955;	%2 onwind
	2	0	0	3	0.0	0.6182335678652705	0.0	0.0	1103664.208557938;	%2 solar
	2	0	0	3	0.0	1456.3549398840726	0.0	0.0	3069859.608087726;	%3 CCGT
	2	0	0	3	0.0	1811.5969488707794	0.0	0.0	1397958.6869687974;	%3 OCGT
	2	0	0	3	0.0	461.9973925089769	0.0	0.0	8620575.026037384;	%3 biomass
	2	0	0	3	0.0	0.7680035200455068	0.0	0.0	6307792.009125818;	%3 offwind
	2	0	0	3	0.0	0.7900944289610317	0.0	0.0	2978662.5286189555;	%3 onwind
	2	0	0	3	0.0	0.6190747242292995	0.0	0.0	1103664.208557938;	%3 solar
	2	0	0	3	0.0	1269.5235938870183	0.0	0.0	3069859.608087726;	%4 CCGT
	2	0	0	3	0.0	1736.181864326304	0.0	0.0	1397958.6869687974;	%4 OCGT
	2	0	0	3	0.0	462.0248333786347	0.0	0.0	8620575.026037384;	%4 biomass
	2	0	0	3	0.0	0.7728240364281321	0.0	0.0	2978662.528618955;	%4 onwind
	2	0	0	3	0.0	0.605880698294792	0.0	0.0	1103664.208557938;	%4 solar
	2	0	0	3	0.0	1303.9661870617037	0.0	0.0	3069859.608087726;	%5 CCGT
	2	0	0	3	0.0	1704.8977083740574	0.0	0.0	1397958.6869687974;	%5 OCGT
	2	0	0	3	0.0	462.0186861925823	0.0	0.0	8620575.026037382;	%5 biomass
	2	0	0	3	0.0	0.7634285487170155	0.0	0.0	2978662.528618955;	%5 onwind
	2	0	0	3	0.0	0.6205271691955038	0.0	0.0	1103664.208557938;	%5 solar
	2	0	0	3	0.0	1278.5260473296119	0.0	0.0	3069859.608087726;	%6 CCGT
	2	0	0	3	0.0	1765.7919204543555	0.0	0.0	1397958.6869687976;	%6 OCGT
	2	0	0	3	0.0	462.02634739386207	0.0	0.0	8620575.026037384;	%6 biomass
	2	0	0	3	0.0	0.7753004304797869	0.0	0.0	2978662.528618955;	%6 onwind
	2	0	0	3	0.0	0.6329845640225217	0.0	0.0	1103664.208557938;	%6 solar
	2	0	0	3	0.0	1211.8575965875639	0.0	0.0	3069859.608087726;	%7 CCGT
	2	0	0	3	0.0	1758.2427915368369	0.0	0.0	1397958.6869687974;	%7 OCGT
	2	0	0	3	0.0	462.0258526261736	0.0	0.0	8620575.026037382;	%7 biomass
	2	0	0	3	0.0	0.7837806116617907	0.0	0.0	2978662.528618955;	%7 onwind
	2	0	0	3	0.0	0.6184532267196289	0.0	0.0	1103664.2085579382;	%7 solar
	2	0	0	3	0.0	1370.1762905343323	0.0	0.0	3069859.608087726;	%8 CCGT
	2	0	0	3	0.0	1796.8223593609384	0.0	0.0	1397958.6869687974;	%8 OCGT
	2	0	0	3	0.0	462.02673090790773	0.0	0.0	8620575.026037384;	%8 biomass
	2	0	0	3	0.0	0.7922879170340071	0.0	0.0	2978662.528618955;	%8 onwind
	2	0	0	3	0.0	0.6176638054111623	0.0	0.0	1103664.208557938;	%8 solar
	2	0	0	3	0.0	1313.8828948531661	0.0	0.0	3069859.608087726;	%9 CCGT
	2	0	0	3	0.0	1772.789789408717	0.0	0.0	1397958.6869687974;	%9 OCGT
	2	0	0	3	0.0	462.0085984844601	0.0	0.0	8620575.026037384;	%9 biomass
	2	0	0	3	0.0	0.7705276975394652	0.0	0.0	2978662.5286189546;	%9 onwind
	2	0	0	3	0.0	0.6248625312955045	0.0	0.0	1103664.208557938;	%9 solar
	2	0.0	0.0	3	0.0	0.29971069472296574	0.0	0.0	5497701.715204079;	%DE1 0 PHS
	2	0.0	0.0	3	0.0	0.29971069472296574	0.0	0.0	-5497701.715204079;	%DE1 0 PHS (pump mode)
	2	0.0	0.0	3	0.0	0.32652908807232844	0.0	0.0	5497701.715204079;	%DE1 12 PHS
	2	0.0	0.0	3	0.0	0.32652908807232844	0.0	0.0	-5497701.715204079;	%DE1 12 PHS (pump mode)
	2	0.0	0.0	3	0.0	0.34071559379932426	0.0	0.0	5497701.715204079;	%DE1 14 PHS
	2	0.0	0.0	3	0.0	0.34071559379932426	0.0	0.0	-5497701.715204079;	%DE1 14 PHS (pump mode)
	2	0.0	0.0	3	0.0	0.28453176696145177	0.0	0.0	5497701.715204079;	%DE1 17 PHS
	2	0.0	0.0	3	0.0	0.28453176696145177	0.0	0.0	-5497701.715204079;	%DE1 17 PHS (pump mode)
	2	0.0	0.0	3	0.0	0.3385102876724827	0.0	0.0	5497701.715204079;	%DE1 2 PHS
	2	0.0	0.0	3	0.0	0.3385102876724827	0.0	0.0	-5497701.715204079;	%DE1 2 PHS (pump mode)
	2	0.0	0.0	3	0.0	0.3256471258665209	0.0	0.0	5497701.715204079;	%DE1 20 PHS
	2	0.0	0.0	3	0.0	0.3256471258665209	0.0	0.0	-5497701.715204079;	%DE1 20 PHS (pump mode)
	2	0.0	0.0	3	0.0	0.30997283726319097	0.0	0.0	5497701.715204079;	%DE1 21 PHS
	2	0.0	0.0	3	0.0	0.30997283726319097	0.0	0.0	-5497701.715204079;	%DE1 21 PHS (pump mode)
	2	0.0	0.0	3	0.0	0.3146456594466656	0.0	0.0	5497701.715204079;	%DE1 25 hydro
	2	0.0	0.0	3	0.0	0.3111042174634758	0.0	0.0	5497701.715204079;	%DE1 27 PHS
	2	0.0	0.0	3	0.0	0.3111042174634758	0.0	0.0	-5497701.715204079;	%DE1 27 PHS (pump mode)
	2	0.0	0.0	3	0.0	0.30294549502418333	0.0	0.0	5497701.715204079;	%DE1 31 PHS
	2	0.0	0.0	3	0.0	0.30294549502418333	0.0	0.0	-5497701.715204079;	%DE1 31 PHS (pump mode)
	2	0.0	0.0	3	0.0	0.29737725941590165	0.0	0.0	5497701.715204079;	%DE1 33 PHS
	2	0.0	0.0	3	0.0	0.29737725941590165	0.0	0.0	-5497701.715204079;	%DE1 33 PHS (pump mode)
	2	0.0	0.0	3	0.0	0.2847822840036998	0.0	0.0	5497701.715204079;	%DE1 36 PHS
	2	0.0	0.0	3	0.0	0.2847822840036998	0.0	0.0	-5497701.715204079;	%DE1 36 PHS (pump mode)
	2	0.0	0.0	3	0.0	0.3141060146097656	0.0	0.0	5497701.715204079;	%DE1 43 PHS
	2	0.0	0.0	3	0.0	0.3141060146097656	0.0	0.0	-5497701.715204079;	%DE1 43 PHS (pump mode)
	2	0.0	0.0	3	0.0	0.28833397363482455	0.0	0.0	5497701.715204079;	%DE1 49 PHS
	2	0.0	0.0	3	0.0	0.28833397363482455	0.0	0.0	-5497701.715204079;	%DE1 49 PHS (pump mode)
	2	0.0	0.0	3	0.0	0.2900686499704302	0.0	0.0	5497701.715204079;	%DE1 50 PHS
	2	0.0	0.0	3	0.0	0.2900686499704302	0.0	0.0	-5497701.715204079;	%DE1 50 PHS (pump mode)
	2	0.0	0.0	3	0.0	0.33615268774118995	0.0	0.0	5497701.715204079;	%DE1 52 PHS
	2	0.0	0.0	3	0.0	0.33615268774118995	0.0	0.0	-5497701.715204079;	%DE1 52 PHS (pump mode)
	2	0.0	0.0	3	0.0	0.30772169537103233	0.0	0.0	5497701.715204079;	%DE1 54 PHS
	2	0.0	0.0	3	0.0	0.30772169537103233	0.0	0.0	-5497701.715204079;	%DE1 54 PHS (pump mode)
	2	0.0	0.0	3	0.0	0.3198174700411325	0.0	0.0	5497701.715204079;	%DE1 61 PHS
	2	0.0	0.0	3	0.0	0.3198174700411325	0.0	0.0	-5497701.715204079;	%DE1 61 PHS (pump mode)
	2	0.0	0.0	3	0.0	0.3242303105221473	0.0	0.0	5497701.715204079;	%DE1 7 PHS
	2	0.0	0.0	3	0.0	0.3242303105221473	0.0	0.0	-5497701.715204079;	%DE1 7 PHS (pump mode)
	2	0.0	0.0	3	0.0	0.28787819258159053	0.0	0.0	5497701.715204079;	%DE1 71 hydro
	2	0.0	0.0	3	0.0	0.33508716039993464	0.0	0.0	5497701.715204079;	%DE1 76 PHS
	2	0.0	0.0	3	0.0	0.33508716039993464	0.0	0.0	-5497701.715204079;	%DE1 76 PHS (pump mode)
];
%% branch data
%	fbus	tbus	r	x	b	rateA	rateB	rateC	ratio	angle	status	angmin	angmax
mpc.branch = [
	1	15	0.004446514507151612	0.03646141895864322	3.1100887306422827e-06	983.1120383760949	983.1120383760949	983.1120383760949	0	0	1	-60	60;
	1	9	0.0066236548409098605	0.05431396969546085	4.632876884410344e-06	983.1120383760949	983.1120383760949	983.1120383760949	0	0	1	-60	60;
	2	14	0.00036342889364109445	0.002980116927856975	4.3562433442329304e-05	12869.830320559791	12869.830320559791	12869.830320559791	0	0	1	-60	60;
	2	18	0.0005977660653844128	0.004901681736152186	1.995841906294707e-05	6792.410446962112	6792.410446962112	6792.410446962112	0	0	1	-60	60;
	2	20	0.0007594657170519633	0.0062276188798261	2.0299890501867426e-05	6077.419873597678	6077.419873597678	6077.419873597678	0	0	1	-60	60;
	2	7	0.0010122549625824677	0.008300490693176236	2.7056737965948302e-05	6077.419873597678	6077.419873597678	6077.419873597678	0	0	1	-60	60;
	2	8	0.002010615542990133	0.016487047452519093	1.6782780884218432e-05	3396.205223481056	3396.205223481056	3396.205223481056	0	0	1	-60	60;
	2	10	0.0005241817991184883	0.004298290752771604	5.3598534430142926e-05	11886.718282183694	11886.718282183694	11886.718282183694	0	0	1	-60	60;
	11	15	0.0011444155077600761	0.009384207163632623	2.381518341854371e-05	5362.429300233245	5362.429300233245	5362.429300233245	0	0	1	-60	60;
	11	16	0.0014237338026427768	0.01167461718167077	1.1884028515801675e-05	3396.205223481056	3396.205223481056	3396.205223481056	0	0	1	-60	60;
	11	3	0.003092914165728497	0.025361896158973676	2.581682058416841e-05	3396.205223481056	3396.205223481056	3396.205223481056	0	0	1	-60	60;
	11	8	0.0021722130471396196	0.017812146986544878	1.8131649151467633e-05	3396.205223481056	3396.205223481056	3396.205223481056	0	0	1	-60	60;
	11	9	0.0008540008001274558	0.007002806561045137	2.8513672548599497e-05	6792.410446962112	6792.410446962112	6792.410446962112	0	0	1	-60	60;
	12	16	0.0006025796753211821	0.004941153337633693	2.01191375277228e-05	6792.410446962112	6792.410446962112	6792.410446962112	0	0	1	-60	60;
	13	14	0.0007568790811307346	0.006206408465272025	2.527093917830723e-05	6792.410446962112	6792.410446962112	6792.410446962112	0	0	1	-60	60;
	13	5	0.00112366070458674	0.009214017777611268	9.379292554975687e-06	3396.205223481056	3396.205223481056	3396.205223481056	0	0	1	-60	60;
	13	6	0.001555406933486283	0.012754336854587522	1.2983115465064572e-05	3396.205223481056	3396.205223481056	3396.205223481056	0	0	1	-60	60;
	14	18	0.001184704521406836	0.009714577075536055	2.224986872573658e-05	5094.307835221583	5094.307835221583	5094.307835221583	0	0	1	-60	60;
	14	3	0.0007624122702652717	0.00625178061617523	4.951870783337223e-05	9473.625097078735	9473.625097078735	9473.625097078735	0	0	1	-60	60;
	14	6	0.00023546671415108084	0.001930827056038863	7.774867939575865e-05	21360.343379262427	21360.343379262427	21360.343379262427	0	0	1	-60	60;
	15	9	0.003025981227480034	0.02481304606533628	2.5258125591245843e-05	3396.205223481056	3396.205223481056	3396.205223481056	0	0	1	-60	60;
	16	4	0.0005576796429122965	0.004572973071880832	2.4400065523473356e-05	7775.522485338205	7775.522485338205	7775.522485338205	0	0	1	-60	60;
	16	8	0.0022733219892160884	0.018641240311571924	1.8975614188055853e-05	3396.205223481056	3396.205223481056	3396.205223481056	0	0	1	-60	60;
	17	3	0.0016284779498957418	0.013353519189145081	2.260173289752433e-05	4379.317261857151	4379.317261857151	4379.317261857151	0	0	1	-60	60;
	17	5	0.0005083825972120511	0.004168737297138818	1.3588646366447507e-05	6077.419873597679	6077.419873597679	6077.419873597679	0	0	1	-60	60;
	18	20	0.00046182876264664046	0.0037869958537024525	3.469431966193496e-05	10188.615670443167	10188.615670443167	10188.615670443167	0	0	1	-60	60;
	19	9	0.00013384008124748897	0.0010974886662294095	7.149917892347253e-05	27169.641787848446	27169.641787848446	27169.641787848446	0	0	1	-60	60;
	20	7	0.00018254458558985453	0.001496865601836807	3.930531396397533e-05	17249.14758241694	17249.14758241694	17249.14758241694	0	0	1	-60	60;
	3	5	0.0014319862400107694	0.01174228716808831	3.8275807873511336e-05	6077.419873597678	6077.419873597678	6077.419873597678	0	0	1	-60	60;
	3	8	0.0011466492608282874	0.009402523938791957	1.591440665318426e-05	4379.317261857151	4379.317261857151	4379.317261857151	0	0	1	-60	60;
	3	9	0.0005405235524081651	0.004432293129746955	4.8820513613460305e-05	11171.727708819262	11171.727708819262	11171.727708819262	0	0	1	-60	60;
	4	7	0.0018507033179182048	0.01517576720692928	1.5447979786392064e-05	3396.205223481056	3396.205223481056	3396.205223481056	0	0	1	-60	60;
	4	10	0.0011474237792125823	0.009408874989543172	1.59251562354228e-05	4379.317261857151	4379.317261857151	4379.317261857151	0	0	1	-60	60;
	7	10	0.00021943617121981208	0.0017993766040024588	3.709096507683684e-05	15282.923505664749	15282.923505664749	15282.923505664749	0	0	1	-60	60;
	8	9	0.0062383406820868985	0.05115439359311257	4.363371135315227e-06	983.1120383760949	983.1120383760949	983.1120383760949	0	0	1	-60	60;
	8	10	0.0005928379554025724	0.0048612712343010945	2.5938341376573478e-05	7775.522485338206	7775.522485338206	7775.522485338206	0	0	1	-60	60;
];
